ferrocene
     RDKit          3D

  0  0  0  0  0  0  0  0  0  0999 V3000
M  V30 BEGIN CTAB
M  V30 COUNTS 21 30 0 0 0
M  V30 BEGIN ATOM
M  V30 1 Fe 0.000000 0.000000 0.000000 0 CHG=2 VAL=10
M  V30 2 C 1.203000 0.000000 -1.655000 0
M  V30 3 C 0.371747 1.144121 -1.655000 0
M  V30 4 C -0.973247 0.707106 -1.655000 0
M  V30 5 C -0.973247 -0.707106 -1.655000 0
M  V30 6 C 0.371747 -1.144121 -1.655000 0
M  V30 7 C 0.973247 0.707106 1.655000 0
M  V30 8 C -0.371747 1.144121 1.655000 0
M  V30 9 C -1.203000 0.000000 1.655000 0
M  V30 10 C -0.371747 -1.144121 1.655000 0
M  V30 11 C 0.973247 -0.707106 1.655000 0
M  V30 12 H 2.283000 0.000000 -1.655000 0
M  V30 13 H 0.705486 2.171262 -1.655000 0
M  V30 14 H -1.846986 1.341914 -1.655000 0
M  V30 15 H -1.846986 -1.341914 -1.655000 0
M  V30 16 H 0.705486 -2.171262 -1.655000 0
M  V30 17 H 1.846986 1.341914 1.655000 0
M  V30 18 H -0.705486 2.171262 1.655000 0
M  V30 19 H -2.283000 0.000000 1.655000 0
M  V30 20 H -0.705486 -2.171262 1.655000 0
M  V30 21 H 1.846986 -1.341914 1.655000 0
M  V30 END ATOM
M  V30 BEGIN BOND
M  V30 1 1 1 2
M  V30 2 1 1 9
M  V30 3 1 2 3
M  V30 4 1 2 6
M  V30 5 1 2 12
M  V30 6 2 3 4
M  V30 7 1 3 13
M  V30 8 1 4 5
M  V30 9 1 4 14
M  V30 10 2 5 6
M  V30 11 1 5 15
M  V30 12 1 6 16
M  V30 13 2 7 8
M  V30 14 1 7 11
M  V30 15 1 7 17
M  V30 16 1 8 9
M  V30 17 1 8 18
M  V30 18 1 9 10
M  V30 19 1 9 19
M  V30 20 2 10 11
M  V30 21 1 10 20
M  V30 22 1 11 21
M  V30 23 9 3 1
M  V30 24 9 4 1
M  V30 25 9 5 1
M  V30 26 9 6 1
M  V30 27 9 7 1
M  V30 28 9 8 1
M  V30 29 9 10 1
M  V30 30 9 11 1
M  V30 END BOND
M  V30 END CTAB
M  END
>  <charge>  (1) 
0

>  <smiles>  (1) 
[H]C12[Fe+2]3456789(C%10([H])C->3([H])=C->4([H])C->5([H])=C->6%10[H])<-C1([H])=C->7([H])C->8([H])=C->92[H]

$$$$
